22

H   1.805000   2.207000   1.332000
C   2.060000   2.160000   0.280000
H   1.342000   2.750000  -0.273000
H   1.999000   1.129000  -0.033000
C   3.471000   2.647000   0.089000
O   4.439000   1.893000   0.203000
N   3.620000   3.960000  -0.182000
H   2.837000   4.570000  -0.254000
C   4.920000   4.577000  -0.331000
H   5.580000   4.173000   0.427000
C   5.529000   4.305000  -1.717000
H   4.889000   4.708000  -2.492000
H   6.512000   4.753000  -1.813000
H   5.624000   3.238000  -1.856000
C   4.742000   6.070000  -0.109000
O   3.635000   6.603000  -0.211000
N   5.853000   6.772000   0.173000
H   6.716000   6.298000   0.284000
C   5.820000   8.216000   0.356000
H   5.405000   8.700000  -0.516000
H   5.217000   8.484000   1.212000
H   6.829000   8.567000   0.509000
